Circuit: * D:\Dysk Google\APJM\Marcin\Detektor_230V.asc

Error on line 14 : v2 n007 0 3,3
	 Unknown parameter "3"
Direct Newton iteration for .op point succeeded.

Date: Wed Oct 14 15:28:27 2020
Total elapsed time: 0.175 seconds.

tnom = 27
temp = 27
method = modified trap
totiter = 2684
traniter = 2663
tranpoints = 1151
accept = 1112
rejected = 39
matrix size = 17
fillins = 9
solver = Normal
Matrix Compiler1: 1.22 KB object code size  0.4/0.3/[0.2]
Matrix Compiler2: 1.40 KB object code size  0.3/0.4/[0.2]

